64
Properties=species:S:1:pos:R:3:forces:R:3 energy=-2390.5531567861285 pbc="F F F"
O       -9.48563671      -5.63210058      -6.30490875      -0.00107665       0.00486161      -0.00518297
O      -11.87823200      -7.51768541       2.52517915       0.00045511      -0.00961553       0.00249116
Cl       6.16201448      14.65753269       6.47404575       0.01213072       0.01369916       0.00568325
Cl       1.98414612      11.04009438       5.51496887      -0.01389789      -0.00808663      -0.00276930
O       17.24048615      12.84330368       3.63014579      -0.00001305      -0.00126891       0.00200365
O        4.53181744       1.25501716      -1.54895568      -0.00409355       0.01626151       0.01384798
C      -10.52152729      -4.53860283      -4.54566097      -0.00682419      -0.00153750       0.03023531
C      -11.24502850      -8.97301865       0.85198981      -0.00035689      -0.02291230      -0.00920695
C        5.17857552      11.80267143       5.10727835      -0.03032999       0.02675172       0.02213449
C        6.88283157      10.26056576       3.81557250       0.04058673      -0.02910216      -0.02534337
C       -0.20456207      -4.27358723      -1.81365740       0.00719411       0.01329481      -0.01088563
C       13.53182602      11.79630947       5.95298004       0.00488690       0.00184251      -0.00388554
C       13.37815666      11.99983883       1.40140331       0.01345034       0.00334969      -0.00233278
C        3.32865548       5.42729187      -0.21060950      -0.00215682      -0.00209205      -0.00208215
C        7.28128147       3.62202072       1.13466763       0.00082906      -0.01096785      -0.00619899
C       10.96555424      11.17217445       6.02206278      -0.01028147      -0.00158478       0.01036085
C       10.80968094      11.36632919       1.45952344      -0.00861038      -0.00150505      -0.00871731
C        3.90340185       7.66389132       1.08936095      -0.00552831       0.01066574       0.00200161
C        7.84308004       5.83857012       2.46179104       0.00656983       0.00230099       0.00484957
C       14.73874283      12.21969318       3.65233064       0.00416401      -0.00067356       0.00984341
C        5.02082205       3.40785718      -0.20228998      -0.01147085      -0.02511561      -0.01486132
C        9.57522488      10.96556187       3.77178788      -0.01501624      -0.00183018      -0.00004175
C        6.16304493       7.90102148       2.47165179       0.00517495       0.00586278       0.00479339
N       -0.27306142      -3.64965558      -4.19666338       0.00675110       0.00521646       0.03236643
N      -11.78913879     -11.42937183       1.05043519      -0.00176817       0.02462708       0.00689458
N       -1.20177269      -6.40031242      -0.95527869       0.00440141       0.01887775      -0.00327801
N      -10.61211395      -5.46882010      -2.20036006       0.00669435       0.01236860      -0.03241941
N        0.89586395      -2.70891380      -0.26397124      -0.01143015      -0.01879345      -0.02458876
C      -11.76108074      -2.00169921      -4.96873856      -0.00086899       0.00067996      -0.00262122
C      -11.11741734     -13.46988010      -0.69536191       0.00268068      -0.00706318       0.00109083
C       -2.39385653      -8.41874313      -2.47090459       0.01062873      -0.00560911       0.00664788
C       -5.17047834      -7.85913420      -3.09205198      -0.00111736      -0.00019199      -0.00808642
C       -6.88580942      -7.95340872      -0.74901253      -0.00274580       0.00380623       0.00579963
C       -9.72258377      -7.99244261      -1.41624796      -0.00025378      -0.00355037       0.01013269
H       17.77713966      13.27321434       1.93149281       0.00469668       0.00337664      -0.00922670
H        6.15567160       0.53034520      -2.03387022       0.01371707      -0.00345441      -0.00417513
H       14.60702133      11.96654415       7.69124079       0.00159813       0.00030561       0.00340342
H       14.29930782      12.31903934      -0.40149668       0.00013002      -0.00004410      -0.00197561
H        1.58201742       5.29597330      -1.27547002      -0.00289846       0.00004014      -0.00036792
H        8.63452339       2.08199644       1.16544473       0.00206745      -0.00024371       0.00081056
H       10.05303860      10.84582901       7.83204556      -0.00168539      -0.00087252       0.00462357
H        9.75866985      11.19916344      -0.29602098      -0.00227350      -0.00016511      -0.00334552
H        2.59465098       9.23848438       0.96044779      -0.00428203       0.00499493      -0.00062819
H        9.61923885       5.95467758       3.48838162       0.00468997      -0.00110710       0.00292348
H       -1.18411720      -4.77923441      -5.42105007      -0.00134644      -0.00494608       0.00371211
H        0.46302727      -2.00033569      -4.77554321       0.00098941       0.00113852       0.00301152
H      -12.80817795     -11.88562202       2.59742332      -0.00279552      -0.00300989       0.00163342
H       -1.09336972      -6.70385838       0.91869205      -0.00035846      -0.00119624       0.00178440
H      -11.53067493      -4.43814135      -0.87668222      -0.00232509       0.00637960      -0.00103338
H        1.71126139      -1.09967101      -0.90437257      -0.00411187      -0.00053865      -0.00444489
H        0.95989585      -3.07758760       1.59529960      -0.00202085      -0.00219771       0.00025879
H      -11.10519123      -0.65241122      -3.56050944       0.00329733      -0.00165100      -0.00011050
H      -13.80257797      -2.22122335      -4.82379532      -0.00021450      -0.00281261      -0.00093492
H      -11.27792168      -1.33095634      -6.85462856       0.00091634       0.00229875      -0.00399776
H      -12.16453075     -13.26941967      -2.46304560      -0.00251754       0.00283866      -0.00081165
H      -11.60170841     -15.28981972       0.14961375      -0.00118740      -0.00573078       0.00072339
H       -9.09328938     -13.44985294      -1.09220493       0.00230436       0.00169969       0.00011637
H       -1.35439813      -8.66526031      -4.23587608      -0.00314075      -0.00020842      -0.00346096
H       -2.28329921     -10.20648289      -1.44654310      -0.00543449      -0.00569574      -0.00173891
H       -5.81311893      -9.27217484      -4.44922924      -0.00092872      -0.00388032       0.00138421
H       -5.29521179      -6.00005198      -3.96601200       0.00340507       0.00276558       0.00366188
H       -6.44109583      -9.67547321       0.29560953       0.00015067       0.00065656      -0.00204957
H       -6.48805523      -6.34570837       0.48012754       0.00354361       0.00225782      -0.00128908
H      -10.03163338      -9.29434586      -2.98197055      -0.00275046      -0.00388656       0.00300007
64
Properties=species:S:1:pos:R:3:forces:R:3 energy=-2390.5418618782633 pbc="F F F"
O       -4.37645817      -6.18403292      -8.70251369      -0.00323514       0.00083424       0.00133062
O       -1.43313134       0.81252939     -13.77247334      -0.00340409       0.00731160      -0.00828624
Cl      10.91165257      -3.97815537       5.06337690      -0.00692855      -0.00153037      -0.01466815
Cl      13.68206882      -4.23733473       9.93646431       0.01228517      -0.00145356       0.01454075
O       -0.37807065       0.61781335       4.96057987       0.01896616      -0.00777693       0.00123741
O        9.84922600       0.68308812      19.81970787      -0.00193141      -0.00037281      -0.00001571
C       -5.49824286      -4.46146870      -9.74410057       0.01467231       0.02644593      -0.01628687
C       -3.73070788       0.98034042     -13.75611782      -0.02009547       0.00393836      -0.01041705
C       10.95449734      -3.30048800       8.30291080       0.03438821      -0.02186865      -0.02184758
C        8.97354698      -2.06973052       9.53231716      -0.03984417       0.02612775       0.02924193
C       -3.88062716       2.05098963      -1.57548523      -0.00202758      -0.00924532       0.01376472
C        3.01906347      -2.36400151       5.45691538      -0.00297957      -0.00052862      -0.00170576
C        3.09209991       1.59971464       7.68785810      -0.01091424       0.00583180      -0.00238258
C       11.45530319       0.86840999      15.58168316       0.00318993       0.00488839       0.01366313
C        7.66846609      -1.48250389      16.53017235       0.00391963       0.00329749       0.00419655
C        5.31741714      -3.04546881       6.58757448       0.00749984      -0.00997618      -0.00079414
C        5.39759970       0.93233472       8.80278492       0.00574731       0.00437459       0.00590626
C       11.24439621       0.17970668      13.03637791       0.00704988       0.00137715      -0.00994302
C        7.44850159      -2.17580748      13.98894596      -0.00867729      -0.00837935      -0.00746631
C        1.89724708      -0.04276055       6.00422621      -0.02546643       0.00388786      -0.01666673
C        9.66718578       0.03214438      17.33161736      -0.00795090      -0.00326039       0.00531742
C        6.56172323      -1.39523840       8.26172733       0.00814323       0.00050980       0.00604607
C        9.24434376      -1.36259413      12.21520901      -0.00174852      -0.00568475      -0.01245031
N       -5.53602266       0.47471118      -0.65757906       0.02877279       0.01510611      -0.00268648
N       -4.90430069       2.14078140     -15.66312695       0.02073960      -0.01114585       0.01405443
N       -4.34771490       3.45134830      -3.59906292       0.00738052      -0.01254271       0.01322556
N       -4.23968077      -2.43723178     -10.57069111      -0.00851787      -0.03578750       0.02126326
N       -1.71051860       2.20461440      -0.41559348      -0.02903007      -0.00506448      -0.00924198
C       -8.34319210      -4.61386585     -10.06033516      -0.00475430      -0.00001255       0.00278649
C       -7.61134577       2.61486840     -15.98087215      -0.00441465       0.00586701      -0.00259927
C       -6.72286558       3.54914975      -5.07602310       0.00122146       0.01312318       0.00296215
C       -6.87651062       1.47374797      -7.10511446      -0.00712773      -0.00389873       0.00470620
C       -5.06662655       1.97707689      -9.31985378       0.00522695      -0.00137335      -0.00129689
C       -5.23704910       0.01005685     -11.46521568      -0.00064322       0.00954045      -0.00554895
H       -1.18605375       1.80264747       6.11611080      -0.00559826       0.00794346       0.01014707
H       11.39419556       1.62181127      20.12041664       0.00877504       0.00530075       0.00353286
H        2.09407139      -3.67237234       4.17813349      -0.00030328      -0.00177780      -0.00236634
H        2.26010370       3.41466308       8.15390110       0.00061319       0.00156102       0.00134377
H       13.01751900       2.05268645      16.17997932       0.00178855       0.00085338      -0.00012504
H        6.28707886      -2.12068820      17.90483856      -0.00281873      -0.00103028       0.00204827
H        6.10775423      -4.89507723       6.17943048       0.00252611      -0.00582507      -0.00152421
H        6.29324293       2.24316239      10.10713863       0.00211925       0.00413931       0.00272447
H       12.64270306       0.84791559      11.68911552       0.00373116       0.00182584      -0.00303034
H        5.88433647      -3.36439610      13.39338112      -0.00303208      -0.00270604      -0.00110951
H       -5.08736610      -0.62155795       0.82565510       0.00381633       0.00108954       0.00084387
H       -7.21011496       0.28168380      -1.52524459       0.00099363       0.00488645      -0.00412553
H       -3.73300552       2.72822952     -17.05059433       0.00051741       0.00137708      -0.00387874
H       -2.94901085       4.60834265      -4.17002773       0.00154888       0.00153656      -0.00080199
H       -2.33538365      -2.61222482     -10.51000118       0.00235766      -0.00358804       0.00050695
H       -0.33777887       3.33418202      -1.07952023      -0.00116595       0.00117616      -0.00280729
H       -1.34886336       1.15331995       1.14186966      -0.00420365      -0.00357613      -0.00203677
H       -8.99247932      -6.41121769      -9.29349709      -0.00321828      -0.00387330       0.00093616
H       -8.80908489      -4.53813648     -12.06222630       0.00352995      -0.00260131      -0.00034926
H       -9.25740528      -3.07720494      -9.05631447       0.00373855      -0.00193722       0.00188027
H       -8.61119843       0.83397943     -16.27088356       0.00233928      -0.00310639       0.00002496
H       -8.37725830       3.58017302     -14.32756615       0.00107776       0.00031005       0.00249397
H       -7.91980505       3.80971026     -17.63602829      -0.00275509       0.00293955      -0.00466519
H       -6.88008070       5.39270735      -5.99248552      -0.00398839       0.00146533      -0.00663052
H       -8.34057903       3.35957336      -3.80908656      -0.00339946      -0.00357376      -0.00196275
H       -8.80392361       1.42303479      -7.83350563       0.00061277       0.00068036      -0.00283961
H       -6.45114899      -0.34944382      -6.24345684       0.00163173       0.00101540       0.00140163
H       -5.51785135       3.83221674     -10.10127163      -0.00138455      -0.00148300       0.00020249
H       -3.12756729       2.04201078      -8.61808300      -0.00019201       0.00054321       0.00437425
H       -7.19631815      -0.20247364     -12.04647160       0.00096861       0.00380654      -0.00413786
64
Properties=species:S:1:pos:R:3:forces:R:3 energy=-2390.546915643983 pbc="F F F"
O      -10.69560528       1.77086973       4.87108946       0.00102032       0.00211287       0.00274708
O      -11.21652317       7.64967632      -2.56072497      -0.00068269       0.00228799      -0.00598467
Cl       2.38602686     -10.78744316      -5.62317133      -0.01360811       0.00874497       0.00293258
Cl       6.44364548     -14.53142262      -6.60192108       0.01176229      -0.01383012      -0.00565577
O        4.95450020      -1.26764739       1.64910579      -0.00434255      -0.01605612      -0.01297861
O       17.57880211     -13.05940437      -3.65669847      -0.00033975       0.00111011       0.00136687
C      -10.61349869       4.06223774       4.64669466       0.00099182       0.01833115      -0.02946687
C      -11.43519115       8.65517330      -0.49213907      -0.00815667       0.01210091       0.01757613
C        5.55090475     -11.66225910      -5.20343065      -0.03079684      -0.02558994      -0.02291117
C        7.29151821     -10.19255161      -3.87399983       0.04008864       0.02768281       0.02643472
C       -0.05180246       4.08381128       1.93782365       0.00831859      -0.01080720       0.01096984
C        3.77256680      -5.42430973       0.25427321      -0.00189212       0.00213956       0.00206261
C        7.72535706      -3.59998441      -1.06187582       0.00093853       0.01094039       0.00623487
C       13.88652134     -11.96000004      -6.03766108       0.01439979      -0.00397906      -0.00153644
C       13.76068974     -12.06006145      -1.48330593       0.00476132      -0.00146970      -0.00378494
C        4.34602261      -7.63623810      -1.08632088      -0.00519991      -0.01017092      -0.00254753
C        8.28528500      -5.79508209      -2.43174672       0.00729116      -0.00231976      -0.00531235
C       11.33834267     -11.25899220      -6.09162998      -0.00818934       0.00152266      -0.00855163
C       11.21380234     -11.35054874      -1.52626920      -0.01042485       0.00218049       0.00989214
C        5.46246195      -3.40403366       0.27915311      -0.01198996       0.02439621       0.01587621
C       15.09673882     -12.36773109      -3.73104477       0.00300280      -0.00040916       0.00964190
C        6.60088968      -7.85274792      -2.47868085       0.00503838      -0.00606011      -0.00494296
C        9.96993923     -10.96086502      -3.83598280      -0.01393305       0.00195123       0.00087263
N        0.17673247       3.58928251       4.34011316       0.00265894      -0.00532769      -0.03265712
N      -12.99632168      10.59899330      -0.07146026       0.00516957      -0.01441331      -0.00849398
N       -1.27225578       6.10112858       1.09339130       0.00606264      -0.01822309       0.00290043
N      -10.31028652       5.11002541       2.37036872       0.00055127      -0.02868047       0.02666922
N        0.98127031       2.49438882       0.36376634      -0.00871577       0.01735818       0.02486499
C      -10.82698250       5.72001219       6.97442770       0.00270590       0.00126504       0.00476341
C      -14.68241119      11.69183826      -1.97673428      -0.00042396       0.00450668       0.00218135
C       -2.38999510       8.16250896       2.61799097       0.00931476       0.00680320      -0.00611401
C       -5.17258549       7.68656158       3.30780077       0.00339908      -0.00169133       0.00806350
C       -6.95890188       8.05574226       1.04261148      -0.00160335      -0.00208217      -0.00390147
C       -9.78241634       7.77295923       1.72559166      -0.00432675       0.00974894      -0.00397089
H        6.57117939      -0.51466858       2.11403179       0.01357331       0.00378924       0.00410913
H       18.20966339     -13.34418678      -5.35404778       0.00515808      -0.00249811      -0.00947035
H        2.02636790      -5.31157160       1.32227337      -0.00285053       0.00004034       0.00043507
H        9.08158684      -2.06213808      -1.06589127       0.00211557       0.00023207      -0.00074516
H       14.90664577     -12.18905354      -7.80065441       0.00018085      -0.00028424      -0.00201458
H       14.72384834     -12.38822651       0.29723731       0.00167216      -0.00043317       0.00320526
H        3.03557706      -9.21174431      -0.98515266      -0.00428933      -0.00501078       0.00044151
H       10.05602169      -5.90216112      -3.46842504       0.00440385       0.00059193      -0.00318998
H       10.41511822     -10.94958019      -7.89899778      -0.00173083       0.00044103      -0.00457052
H       10.19522572     -11.12376881       0.24119495      -0.00196460       0.00019257       0.00361680
H        1.04979265       2.00176096       4.90389538       0.00079982      -0.00143398      -0.00342240
H       -0.63702691       4.74173450       5.60503578      -0.00157624       0.00431535      -0.00439571
H      -13.06393147      11.33565903       1.68020594       0.00121443       0.00148173       0.00234835
H       -1.39775145       6.28759050      -0.79620594      -0.00045473       0.00027446      -0.00212945
H      -10.37012863       3.86479139       0.91967750      -0.00141024      -0.00385627      -0.00043640
H        1.95589185       0.97247434       0.99694854      -0.00336609       0.00047063       0.00405380
H        0.81937444       2.74531221      -1.50969350      -0.00198515       0.00200018      -0.00014729
H       -9.08530903       6.76831818       7.25208473       0.00057087      -0.00440717      -0.00164694
H      -11.16750431       4.51841784       8.61282825      -0.00148461      -0.00117454       0.00531529
H      -12.41792679       7.00410557       6.75240564      -0.00206463      -0.00382797      -0.00199221
H      -14.95993996      13.70337105      -1.61824548      -0.00188788       0.00398461      -0.00195533
H      -13.88156700      11.46576881      -3.86656475      -0.00046469       0.00153739      -0.00627071
H      -16.51140976      10.73844528      -1.92663288      -0.00165662      -0.00177372       0.00126554
H       -2.25593281       9.93502140       1.56843531      -0.00459837       0.00564105       0.00090287
H       -1.30738676       8.40931988       4.35652971      -0.00319363       0.00062795       0.00416850
H       -5.36750126       5.78076077       4.06826448       0.00132408      -0.00078370      -0.00140082
H       -5.70248127       9.03254128       4.77635622      -0.00196991       0.00126043      -0.00157815
H       -6.47826815       6.70166731      -0.43764210       0.00420823      -0.00194571       0.00106499
H       -6.66005278       9.95334148       0.28983498      -0.00022394       0.00034125       0.00175080
H      -10.19941616       9.00280952       3.32150960      -0.00100114       0.00598345      -0.00460514
64
Properties=species:S:1:pos:R:3:forces:R:3 energy=-2390.552627819333 pbc="F F F"
O       -8.40863419       3.77040625       9.17502022      -0.00148701       0.00677091      -0.00189138
O       -1.96057451      -0.52144116      14.34689331      -0.00333246      -0.00783792       0.00490038
Cl      10.58261395       4.29630184      -5.18597841      -0.00703159       0.00209055       0.01476565
Cl      13.33292007       4.43955326     -10.07128334       0.01185151       0.00107054      -0.01456826
O       -0.54097408      -0.74287754      -4.91852140       0.01959112       0.00833081      -0.00062893
O        9.84596348      -1.01668465     -19.72490501      -0.00177328      -0.00017786       0.00006802
C       -6.29845333       4.24869108       9.99906254       0.02525799      -0.01217660       0.01349584
C       -4.15452337      -1.12144148      13.96477509      -0.02015764      -0.01269432       0.00774454
C       10.64283943       3.47716355      -8.39333725       0.03325126       0.02411108       0.02110737
C        8.71355915       2.11905718      -9.57090378      -0.03800244      -0.02884021      -0.02843864
C       -3.95841050      -2.11454654       1.60662436      -0.00246338       0.01041479      -0.01535852
C        2.78176451       2.30864263      -5.45788240      -0.00293822       0.00037252       0.00219398
C        2.94181442      -1.67777216      -7.64352322      -0.01060421      -0.00583252       0.00259577
C       11.35849190      -1.00035000     -15.45349121       0.00342007      -0.00518428      -0.01359607
C        7.53929424       1.22357059     -16.56587982       0.00372696      -0.00313894      -0.00407856
C        5.04828644       3.03901124      -6.61982012       0.00737618       0.00969653       0.00037937
C        5.21915245      -0.96316415      -8.78395939       0.00548712      -0.00403675      -0.00595478
C       11.07887936      -0.22120728     -12.94229507       0.00651216      -0.00091625       0.01004203
C        7.25433636       2.01160049     -14.05707836      -0.00926660       0.00864739       0.00711592
C        1.71822596      -0.04637322      -5.97132349      -0.02495058      -0.00464208       0.01701996
C        9.58872223      -0.27437192     -17.26883316      -0.00805451       0.00261437      -0.00534286
C        6.32561731       1.40092933      -8.28014755       0.00763743      -0.00041202      -0.00563691
C        9.03327084       1.30903816     -12.21958351      -0.00182780       0.00619584       0.01255101
N       -5.70155287      -0.63890737       0.68397158       0.03062371      -0.01391836       0.00157585
N       -5.31051016      -2.71764493      15.53997993       0.01947720       0.01561022      -0.00777245
N       -4.31706810      -3.46169996       3.68473434       0.00705040       0.01191328      -0.01225131
N       -4.81347418       2.51387215      11.07685089      -0.02032207       0.02075773      -0.01881899
N       -1.81099856      -2.22653151       0.40111688      -0.02948466       0.00333033       0.01087470
C       -5.24879932       6.89634514       9.79277325      -0.00052722       0.00155428      -0.00200883
C       -7.89911366      -3.68852949      15.39079189      -0.00323532      -0.00673288       0.00154292
C       -6.67213440      -3.64687228       5.18097258       0.00232327      -0.01249516      -0.00519145
C       -6.90635729      -1.55391562       7.17803812      -0.00730356       0.00377990      -0.00131557
C       -4.97928762      -1.85066473       9.33210087       0.00689223       0.00147668       0.00195940
C       -5.53641796      -0.12458262      11.61418343       0.00621318      -0.00750755       0.00459066
H       -1.34651101      -1.91975129      -6.08484125      -0.00560843      -0.00783929      -0.01056619
H       11.44073391      -1.88903093     -19.96282768       0.00947790      -0.00499358      -0.00331980
H        1.82679093       3.60753655      -4.19192028      -0.00033473       0.00168161       0.00237248
H        2.15508795      -3.51928234      -8.08434677       0.00074726      -0.00176277      -0.00145220
H       12.96295261      -2.16491389     -15.97450066       0.00200373      -0.00071102       0.00020715
H        6.17405605       1.77881694     -17.99225998      -0.00282555       0.00094048      -0.00231174
H        5.78102064       4.92046022      -6.25419569       0.00228841       0.00609323       0.00122107
H        6.13519335      -2.26831508     -10.07912731       0.00189984      -0.00421563      -0.00264213
H       12.46450615      -0.80516386     -11.54477596       0.00346911      -0.00166837       0.00287372
H        5.65531301       3.18976426     -13.53933525      -0.00302958       0.00261280       0.00094037
H       -7.34289503      -0.45614809       1.62037146       0.00069314      -0.00459159       0.00457025
H       -5.36044693       0.39702243      -0.86712086       0.00324459      -0.00108821      -0.00043722
H       -4.24025106      -3.26759863      17.02073479       0.00004340      -0.00176343       0.00397363
H       -2.85311174      -4.51880503       4.28051138       0.00104383      -0.00117221       0.00095876
H       -3.11044550       3.08647323      11.73199272       0.00274322       0.00613677      -0.00140065
H       -0.39572427      -3.30864000       1.05350006      -0.00092378      -0.00088388       0.00307386
H       -1.52806783      -1.22995162      -1.20809436      -0.00479448       0.00328225       0.00174322
H       -6.64161015       8.09545517       8.86405087      -0.00258111       0.00366542      -0.00182885
H       -4.86835527       7.63202190      11.67705822      -0.00277648      -0.00141110       0.00151027
H       -3.51365829       6.86822701       8.68966198      -0.00183730      -0.00255622      -0.00172549
H       -8.20090008      -5.08376646      16.88167572      -0.00263611      -0.00366879       0.00388085
H       -9.25506020      -2.15365195      15.65083408       0.00055415       0.00364888       0.00050836
H       -8.23036766      -4.59299660      13.56699085       0.00129760       0.00005514      -0.00250137
H       -6.74218082      -5.48158598       6.12370205      -0.00424678      -0.00075382       0.00668155
H       -8.30840397      -3.54718280       3.92828608      -0.00363243       0.00330540       0.00223811
H       -6.65994215       0.27490816       6.26463175       0.00408561      -0.00098622      -0.00282503
H       -8.80691814      -1.63776910       7.97304440      -0.00066617      -0.00248847       0.00305030
H       -5.04481888      -3.80885696       9.97480679      -0.00147634       0.00168604      -0.00080347
H       -3.07776213      -1.47579074       8.62654495      -0.00006454       0.00030718      -0.00461283
H       -7.55668879      -0.16609006      12.01580238       0.00011613      -0.00299660       0.00492368
